TEST_N_EXP_ElemPowers.CSV
Element, Nterminals, Nconductors, P_1, Q_1, ...
"Vsource.source", 2, 3,   -53.5568,   -36.7779,   -53.5568,   -36.7779,   -53.5568,   -36.7779,          0,          0,          0,          0,          0,          0
"Line.linea-b", 2, 3,    53.5568,    36.7779,    53.5568,    36.7779,    53.5568,    36.7779,   -53.3333,   -36.6666,   -53.3333,   -36.6666,   -53.3333,   -36.6666
"Load.l1", 1, 4,    53.3333,    36.6667,    53.3333,    36.6667,    53.3333,    36.6667,          0,          0
